OPT_V10/Two_days_first_run/powerflow_results_t14.txt
Pandapower Network Debug Info
==================================================

BUS:
       vm_pu  va_degree      p_mw    q_mvar
0   0.997923   0.312395 -0.001409  0.000965
1   0.996619   0.508408 -0.001061  0.001844
2   0.994980   0.669345 -0.000375  0.002787
3   0.996098   0.457439 -0.000137  0.003662
4   0.991646   0.434437  0.001080  0.005747
5   0.996631   0.315558  0.000120  0.005318
6   0.996783   0.404197 -0.000965  0.001013
7   0.999076   0.102138 -0.000537  0.002120
8   0.998488   0.089103 -0.000466  0.003382
9   0.999855   0.002508  0.006462  0.011847
10  0.999861   0.002373  0.010234  0.007597
11  0.999876   0.002193  0.009263  0.011750
12  0.999828   0.003764  0.006248  0.006263
13  0.999803   0.003905  0.010031  0.009762
14  0.999812   0.003851  0.011424  0.010602
15  0.999946   0.001325  0.000000  0.000000
16  0.999946   0.001331  0.000000  0.000000
17  0.999832   0.003737  0.000000  0.000000
18  0.999832   0.003747  0.000000  0.000000
19  1.000000   0.000000 -0.023076 -0.045514
20  1.000000   0.000006  0.000000  0.000000
21  1.000000   0.000000 -0.027056 -0.049286
22  1.000000   0.000007  0.000000  0.000000
--------------------------------------------------

LINE:
    p_from_mw  q_from_mvar   p_to_mw  q_to_mvar         pl_mw       ql_mvar  i_from_ka   i_to_ka      i_ka  vm_from_pu  va_from_degree  vm_to_pu  va_to_degree  loading_percent
0    0.023066     0.041514 -0.023064  -0.041512  2.206159e-06  1.720179e-06   0.001828  0.001828  0.001828    1.000000        0.000006  0.999946      0.001325         0.794767
1    0.027046     0.045286 -0.027039  -0.045280  7.484170e-06  5.835530e-06   0.002030  0.002030  0.002030    1.000000        0.000007  0.999832      0.003737         0.882728
2    0.025961     0.031197 -0.025959  -0.031195  2.278796e-06  1.776815e-06   0.001562  0.001562  0.001562    0.999946        0.001325  0.999876      0.002193         0.679229
3    0.006248     0.006263 -0.006248  -0.006263  2.707232e-08  2.110874e-08   0.000341  0.000341  0.000341    0.999832        0.003737  0.999828      0.003764         0.148066
4    0.021456     0.020365 -0.021455  -0.020364  4.786384e-07  3.732023e-07   0.001139  0.001139  0.001139    0.999832        0.003737  0.999812      0.003851         0.495122
5   -0.002907     0.009316  0.002952  -0.009281  4.455110e-05  3.473723e-05   0.014087  0.014087  0.014087    0.999946        0.001331  0.997923      0.312395         6.124738
6   -0.000812     0.006357  0.000844  -0.006332  3.187241e-05  2.485144e-05   0.009251  0.009251  0.009251    0.999832        0.003747  0.996631      0.315558         4.022344
7   -0.000534     0.002123  0.000537  -0.002120  3.238378e-06  2.525016e-06   0.003160  0.003160  0.003160    0.999832        0.003747  0.999076      0.102138         1.373941
8    0.000671     0.009173 -0.000657  -0.009162  1.455081e-05  1.134550e-05   0.013278  0.013278  0.013278    0.999832        0.003747  0.998488      0.089103         5.773109
9    0.006462     0.011847 -0.006462  -0.011847  6.299534e-08  4.911850e-08   0.000519  0.000519  0.000519    0.999861        0.002373  0.999855      0.002508         0.225864
10   0.016696     0.019445 -0.016696  -0.019445  3.213260e-07  2.505432e-07   0.000987  0.000987  0.000987    0.999876        0.002193  0.999861      0.002373         0.428953
11   0.010031     0.009762 -0.010031  -0.009762  9.585706e-08  7.474133e-08   0.000539  0.000539  0.000539    0.999812        0.003851  0.999803      0.003905         0.234287
12   0.001429    -0.004637 -0.001415   0.004648  1.402297e-05  1.093394e-05   0.007027  0.007027  0.007027    0.996619        0.508408  0.997923      0.312395         3.055261
13   0.000137    -0.003662 -0.000128   0.003669  9.035273e-06  7.044951e-06   0.005310  0.005310  0.005310    0.996098        0.457439  0.997923      0.312395         2.308535
14   0.000375    -0.002787 -0.000368   0.002792  7.224924e-06  5.633392e-06   0.004079  0.004079  0.004079    0.994980        0.669345  0.996619      0.508408         1.773542
15   0.001123     0.005780 -0.001080  -0.005747  4.231323e-05  3.299232e-05   0.008512  0.008512  0.008512    0.998488        0.089103  0.991646      0.434437         3.700737
16   0.000965    -0.001013 -0.000964   0.001014  1.714967e-06  1.337188e-06   0.002026  0.002026  0.002026    0.996783        0.404197  0.996631      0.315558         0.880774
--------------------------------------------------

TRAFO:
    p_hv_mw  q_hv_mvar   p_lv_mw  q_lv_mvar    pl_mw  ql_mvar   i_hv_ka   i_lv_ka  vm_hv_pu  va_hv_degree  vm_lv_pu  va_lv_degree  loading_percent
0 -0.002897   0.010316  0.002907  -0.009316  0.00001    0.001  0.000412  0.014087  0.999946      0.001325  0.999946      0.001331         0.107156
1 -0.000664   0.018653  0.000674  -0.017653  0.00001    0.001  0.000719  0.025503  0.999832      0.003737  0.999832      0.003747         0.186677
2  0.023076   0.045514 -0.023066  -0.041514  0.00001    0.004  0.000421  0.001828  1.000000      0.000000  1.000000      0.000006         0.127575
3  0.027056   0.049286 -0.027046  -0.045286  0.00001    0.004  0.000464  0.002030  1.000000      0.000000  1.000000      0.000007         0.140561
--------------------------------------------------
